<?xml version="1.0" encoding="UTF-8"?>

<!-- generated on 2025-01-15 12:25:27 by Eclipse SUMO netedit Version 1.21.0
<neteditConfiguration xmlns:xsi="http://www.w3.org/2001/XMLSchema-instance" xsi:noNamespaceSchemaLocation="http://sumo.dlr.de/xsd/neteditConfiguration.xsd">

    <input>
        <sumocfg-file value="C:\Users\14012\OneDrive\Desktop\1\2.sumocfg"/>
        <route-files value="C:\Users\14012\OneDrive\Desktop\1\map.rou.xml"/>
        <sumo-net-file value="C:\Users\14012\OneDrive\Desktop\1\corss.net.xml"/>
    </input>

    <output>
        <output-file value="C:\Users\14012\OneDrive\Desktop\1\corss.net.xml"/>
    </output>

    <processing>
        <geometry.min-radius.fix.railways value="false"/>
        <geometry.max-grade.fix value="false"/>
        <offset.disable-normalization value="true"/>
        <lefthand value="0"/>
    </processing>

    <junctions>
        <no-turnarounds value="true"/>
        <junctions.corner-detail value="5"/>
        <junctions.limit-turn-speed value="5.50"/>
        <rectangular-lane-cut value="0"/>
    </junctions>

    <pedestrian>
        <walkingareas value="0"/>
    </pedestrian>

</neteditConfiguration>
-->

<net version="1.20" junctionCornerDetail="5" limitTurnSpeed="5.50" xmlns:xsi="http://www.w3.org/2001/XMLSchema-instance" xsi:noNamespaceSchemaLocation="http://sumo.dlr.de/xsd/net_file.xsd">

    <location netOffset="-332527.99,-6582143.48" convBoundary="0.00,0.00,397.32,322.30" origBoundary="18.054917,59.344736,18.061756,59.347758" projParameter="+proj=utm +zone=34 +ellps=WGS84 +datum=WGS84 +units=m +no_defs"/>

    <type id="highway.footway" priority="1" numLanes="1" speed="2.78" allow="pedestrian" oneway="1" width="2.00"/>
    <type id="highway.residential" priority="3" numLanes="1" speed="13.89" disallow="tram rail_urban rail rail_electric rail_fast ship container cable_car subway aircraft wheelchair scooter drone" oneway="0"/>

    <edge id=":1436224098_0" function="internal">
        <lane id=":1436224098_0_0" index="0" disallow="tram rail_urban rail rail_electric rail_fast ship container cable_car subway aircraft wheelchair scooter drone" speed="3.65" length="4.67" shape="-0.62,1.47 -1.42,0.27 -1.47,-0.62 -0.80,-1.20 0.62,-1.47"/>
    </edge>
    <edge id=":1518435372_0" function="internal">
        <lane id=":1518435372_0_0" index="0" disallow="tram rail_urban rail rail_electric rail_fast ship container cable_car subway aircraft wheelchair scooter drone" speed="3.65" length="4.67" shape="340.65,57.90 341.86,57.12 342.76,57.07 343.33,57.76 343.59,59.18"/>
    </edge>
    <edge id=":5086359517_0" function="internal">
        <lane id=":5086359517_0_0" index="0" disallow="tram rail_urban rail rail_electric rail_fast ship container cable_car subway aircraft wheelchair scooter drone" speed="8.33" length="5.03" shape="306.49,144.65 304.46,149.25"/>
    </edge>
    <edge id=":5086359517_1" function="internal">
        <lane id=":5086359517_1_0" index="0" disallow="tram rail_urban rail rail_electric rail_fast ship container cable_car subway aircraft wheelchair scooter drone" speed="8.33" length="5.07" shape="301.52,147.98 303.57,143.34"/>
    </edge>
    <edge id=":5086359519_0" function="internal">
        <lane id=":5086359519_0_0" index="0" disallow="tram rail_urban rail rail_electric rail_fast ship container cable_car subway aircraft wheelchair scooter drone" speed="8.33" length="5.09" shape="313.75,128.20 311.72,132.87"/>
    </edge>
    <edge id=":5086359519_1" function="internal">
        <lane id=":5086359519_1_0" index="0" disallow="tram rail_urban rail rail_electric rail_fast ship container cable_car subway aircraft wheelchair scooter drone" speed="8.33" length="5.07" shape="308.79,131.58 310.81,126.93"/>
    </edge>
    <edge id=":538958136_0" function="internal">
        <lane id=":538958136_0_0" index="0" disallow="tram rail_urban rail rail_electric rail_fast ship container cable_car subway aircraft wheelchair scooter drone" speed="8.33" length="0.30" shape="341.03,65.07 340.91,65.35"/>
    </edge>
    <edge id=":538958136_1" function="internal">
        <lane id=":538958136_1_0" index="0" disallow="tram rail_urban rail rail_electric rail_fast ship container cable_car subway aircraft wheelchair scooter drone" speed="8.33" length="0.30" shape="337.97,64.07 338.09,63.79"/>
    </edge>
    <edge id=":7331776312_0" function="internal">
        <lane id=":7331776312_0_0" index="0" disallow="tram rail_urban rail rail_electric rail_fast ship container cable_car subway aircraft wheelchair scooter drone" speed="8.33" length="0.23" shape="259.42,37.78 259.33,37.99"/>
    </edge>
    <edge id=":7331776312_1" function="internal">
        <lane id=":7331776312_1_0" index="0" disallow="tram rail_urban rail rail_electric rail_fast ship container cable_car subway aircraft wheelchair scooter drone" speed="8.33" length="0.31" shape="256.39,36.72 256.51,36.44"/>
    </edge>
    <edge id=":7331776317_0" function="internal">
        <lane id=":7331776317_0_0" index="0" disallow="tram rail_urban rail rail_electric rail_fast ship container cable_car subway aircraft wheelchair scooter drone" speed="8.33" length="0.29" shape="337.92,72.18 337.80,72.45"/>
    </edge>
    <edge id=":7331776317_1" function="internal">
        <lane id=":7331776317_1_0" index="0" disallow="tram rail_urban rail rail_electric rail_fast ship container cable_car subway aircraft wheelchair scooter drone" speed="8.33" length="0.31" shape="334.86,71.18 334.98,70.90"/>
    </edge>
    <edge id=":cluster_1170179639_1170179641_1170179661_1170179725_#1more_0" function="internal">
        <lane id=":cluster_1170179639_1170179641_1170179661_1170179725_#1more_0_0" index="0" disallow="tram rail_urban rail rail_electric rail_fast ship container cable_car subway aircraft wheelchair scooter drone" speed="8.33" length="17.04" shape="235.37,93.35 234.03,98.04 234.37,101.97 236.40,105.15 240.12,107.58"/>
    </edge>
    <edge id=":cluster_1170179639_1170179641_1170179661_1170179725_#1more_1" function="internal">
        <lane id=":cluster_1170179639_1170179641_1170179661_1170179725_#1more_1_0" index="0" disallow="tram rail_urban rail rail_electric rail_fast ship container cable_car subway aircraft wheelchair scooter drone" speed="8.33" length="22.33" shape="235.37,93.35 225.72,113.49"/>
    </edge>
    <edge id=":cluster_1170179639_1170179641_1170179661_1170179725_#1more_2" function="internal">
        <lane id=":cluster_1170179639_1170179641_1170179661_1170179725_#1more_2_0" index="0" disallow="tram rail_urban rail rail_electric rail_fast ship container cable_car subway aircraft wheelchair scooter drone" speed="8.33" length="5.58" shape="235.37,93.35 232.41,98.08"/>
    </edge>
    <edge id=":cluster_1170179639_1170179641_1170179661_1170179725_#1more_3" function="internal">
        <lane id=":cluster_1170179639_1170179641_1170179661_1170179725_#1more_3_0" index="0" disallow="tram rail_urban rail rail_electric rail_fast ship container cable_car subway aircraft wheelchair scooter drone" speed="3.65" length="1.44" shape="235.37,93.35 234.16,94.13"/>
    </edge>
    <edge id=":cluster_1170179639_1170179641_1170179661_1170179725_#1more_12" function="internal">
        <lane id=":cluster_1170179639_1170179641_1170179661_1170179725_#1more_12_0" index="0" disallow="tram rail_urban rail rail_electric rail_fast ship container cable_car subway aircraft wheelchair scooter drone" speed="8.33" length="15.41" shape="232.41,98.08 228.54,100.66 223.75,101.11 218.06,99.42"/>
    </edge>
    <edge id=":cluster_1170179639_1170179641_1170179661_1170179725_#1more_13" function="internal">
        <lane id=":cluster_1170179639_1170179641_1170179661_1170179725_#1more_13_0" index="0" disallow="tram rail_urban rail rail_electric rail_fast ship container cable_car subway aircraft wheelchair scooter drone" speed="3.65" length="3.23" shape="234.16,94.13 233.27,94.18 232.69,93.50 232.44,92.08"/>
    </edge>
    <edge id=":cluster_1170179639_1170179641_1170179661_1170179725_#1more_4" function="internal">
        <lane id=":cluster_1170179639_1170179641_1170179661_1170179725_#1more_4_0" index="0" disallow="tram rail_urban rail rail_electric rail_fast ship container cable_car subway aircraft wheelchair scooter drone" speed="8.33" length="15.77" shape="219.37,96.50 223.69,97.80 227.31,97.49 230.22,95.59 232.44,92.08"/>
    </edge>
    <edge id=":cluster_1170179639_1170179641_1170179661_1170179725_#1more_5" function="internal">
        <lane id=":cluster_1170179639_1170179641_1170179661_1170179725_#1more_5_0" index="0" disallow="tram rail_urban rail rail_electric rail_fast ship container cable_car subway aircraft wheelchair scooter drone" speed="8.33" length="23.53" shape="219.37,96.50 240.12,107.58"/>
    </edge>
    <edge id=":cluster_1170179639_1170179641_1170179661_1170179725_#1more_6" function="internal">
        <lane id=":cluster_1170179639_1170179641_1170179661_1170179725_#1more_6_0" index="0" disallow="tram rail_urban rail rail_electric rail_fast ship container cable_car subway aircraft wheelchair scooter drone" speed="8.33" length="20.65" shape="219.37,96.50 224.10,99.51 226.74,103.34 227.28,108.00 225.72,113.49"/>
    </edge>
    <edge id=":cluster_1170179639_1170179641_1170179661_1170179725_#1more_7" function="internal">
        <lane id=":cluster_1170179639_1170179641_1170179661_1170179725_#1more_7_0" index="0" disallow="tram rail_urban rail rail_electric rail_fast ship container cable_car subway aircraft wheelchair scooter drone" speed="3.65" length="4.67" shape="219.37,96.50 220.13,97.72 220.17,98.62 219.48,99.18 218.06,99.42"/>
    </edge>
    <edge id=":cluster_1170179639_1170179641_1170179661_1170179725_#1more_8" function="internal">
        <lane id=":cluster_1170179639_1170179641_1170179661_1170179725_#1more_8_0" index="0" disallow="tram rail_urban rail rail_electric rail_fast ship container cable_car subway aircraft wheelchair scooter drone" speed="8.33" length="15.51" shape="222.80,112.19 223.97,108.06 223.57,104.56 221.60,101.68 218.06,99.42"/>
    </edge>
    <edge id=":cluster_1170179639_1170179641_1170179661_1170179725_#1more_9" function="internal">
        <lane id=":cluster_1170179639_1170179641_1170179661_1170179725_#1more_9_0" index="0" disallow="tram rail_urban rail rail_electric rail_fast ship container cable_car subway aircraft wheelchair scooter drone" speed="8.33" length="22.30" shape="222.80,112.19 232.44,92.08"/>
    </edge>
    <edge id=":cluster_1170179639_1170179641_1170179661_1170179725_#1more_10" function="internal">
        <lane id=":cluster_1170179639_1170179641_1170179661_1170179725_#1more_10_0" index="0" disallow="tram rail_urban rail rail_electric rail_fast ship container cable_car subway aircraft wheelchair scooter drone" speed="8.33" length="4.84" shape="222.80,112.19 225.49,108.17"/>
    </edge>
    <edge id=":cluster_1170179639_1170179641_1170179661_1170179725_#1more_11" function="internal">
        <lane id=":cluster_1170179639_1170179641_1170179661_1170179725_#1more_11_0" index="0" disallow="tram rail_urban rail rail_electric rail_fast ship container cable_car subway aircraft wheelchair scooter drone" speed="3.65" length="1.44" shape="222.80,112.19 224.01,111.42"/>
    </edge>
    <edge id=":cluster_1170179639_1170179641_1170179661_1170179725_#1more_14" function="internal">
        <lane id=":cluster_1170179639_1170179641_1170179661_1170179725_#1more_14_0" index="0" disallow="tram rail_urban rail rail_electric rail_fast ship container cable_car subway aircraft wheelchair scooter drone" speed="8.33" length="15.57" shape="225.49,108.17 225.59,108.02 229.41,105.86 234.26,105.72 240.12,107.58"/>
    </edge>
    <edge id=":cluster_1170179639_1170179641_1170179661_1170179725_#1more_15" function="internal">
        <lane id=":cluster_1170179639_1170179641_1170179661_1170179725_#1more_15_0" index="0" disallow="tram rail_urban rail rail_electric rail_fast ship container cable_car subway aircraft wheelchair scooter drone" speed="3.65" length="3.23" shape="224.01,111.42 224.91,111.38 225.48,112.06 225.72,113.49"/>
    </edge>
    <edge id=":cluster_1436224101_5086359514_0" function="internal">
        <lane id=":cluster_1436224101_5086359514_0_0" index="0" disallow="tram rail_urban rail rail_electric rail_fast ship container cable_car subway aircraft wheelchair scooter drone" speed="8.33" length="7.00" shape="15.26,8.56 8.91,5.62"/>
    </edge>
    <edge id=":cluster_1436224101_5086359514_1" function="internal">
        <lane id=":cluster_1436224101_5086359514_1_0" index="0" disallow="tram rail_urban rail rail_electric rail_fast ship container cable_car subway aircraft wheelchair scooter drone" speed="8.33" length="7.00" shape="10.21,2.70 16.56,5.64"/>
    </edge>
    <edge id=":cluster_1518435236_538958140_0" function="internal">
        <lane id=":cluster_1518435236_538958140_0_0" index="0" disallow="tram rail_urban rail rail_electric rail_fast ship container cable_car subway aircraft wheelchair scooter drone" speed="3.65" length="4.67" shape="260.69,27.43 261.92,26.67 262.82,26.65 263.37,27.35 263.60,28.77"/>
    </edge>
    <edge id=":cluster_1611096678_5086360621_0" function="internal">
        <lane id=":cluster_1611096678_5086360621_0_0" index="0" disallow="tram rail_urban rail rail_electric rail_fast ship container cable_car subway aircraft wheelchair scooter drone" speed="8.33" length="4.95" shape="383.52,171.84 388.11,173.69"/>
    </edge>
    <edge id=":cluster_5086359518_5086359520_5482274_0" function="internal">
        <lane id=":cluster_5086359518_5086359520_5482274_0_0" index="0" disallow="tram rail_urban rail rail_electric rail_fast ship container cable_car subway aircraft wheelchair scooter drone" speed="8.26" length="15.06" shape="311.53,133.31 311.26,135.86 312.70,138.42 315.85,140.99 320.71,143.56"/>
    </edge>
    <edge id=":cluster_5086359518_5086359520_5482274_1" function="internal">
        <lane id=":cluster_5086359518_5086359520_5482274_1_0" index="0" disallow="tram rail_urban rail rail_electric rail_fast ship container cable_car subway aircraft wheelchair scooter drone" speed="8.33" length="11.39" shape="311.53,133.31 306.91,143.72"/>
    </edge>
    <edge id=":cluster_5086359518_5086359520_5482274_2" function="internal">
        <lane id=":cluster_5086359518_5086359520_5482274_2_0" index="0" disallow="tram rail_urban rail rail_electric rail_fast ship container cable_car subway aircraft wheelchair scooter drone" speed="3.65" length="1.44" shape="311.53,133.31 310.31,134.08"/>
    </edge>
    <edge id=":cluster_5086359518_5086359520_5482274_9" function="internal">
        <lane id=":cluster_5086359518_5086359520_5482274_9_0" index="0" disallow="tram rail_urban rail rail_electric rail_fast ship container cable_car subway aircraft wheelchair scooter drone" speed="3.65" length="3.23" shape="310.31,134.08 309.41,134.12 308.85,133.43 308.60,132.00"/>
    </edge>
    <edge id=":cluster_5086359518_5086359520_5482274_3" function="internal">
        <lane id=":cluster_5086359518_5086359520_5482274_3_0" index="0" disallow="tram rail_urban rail rail_electric rail_fast ship container cable_car subway aircraft wheelchair scooter drone" speed="8.33" length="15.81" shape="294.19,131.92 299.61,133.96 303.83,134.65 306.82,134.00 308.60,132.00"/>
    </edge>
    <edge id=":cluster_5086359518_5086359520_5482274_4" function="internal">
        <lane id=":cluster_5086359518_5086359520_5482274_4_0" index="0" disallow="tram rail_urban rail rail_electric rail_fast ship container cable_car subway aircraft wheelchair scooter drone" speed="8.33" length="28.97" shape="294.19,131.92 320.71,143.56"/>
    </edge>
    <edge id=":cluster_5086359518_5086359520_5482274_5" function="internal">
        <lane id=":cluster_5086359518_5086359520_5482274_5_0" index="0" disallow="tram rail_urban rail rail_electric rail_fast ship container cable_car subway aircraft wheelchair scooter drone" speed="8.33" length="18.61" shape="294.19,131.92 300.60,135.18 304.86,138.24 306.96,141.08 306.91,143.72"/>
    </edge>
    <edge id=":cluster_5086359518_5086359520_5482274_6" function="internal">
        <lane id=":cluster_5086359518_5086359520_5482274_6_0" index="0" disallow="tram rail_urban rail rail_electric rail_fast ship container cable_car subway aircraft wheelchair scooter drone" speed="8.33" length="11.39" shape="303.98,142.42 308.60,132.00"/>
    </edge>
    <edge id=":cluster_5086359518_5086359520_5482274_7" function="internal">
        <lane id=":cluster_5086359518_5086359520_5482274_7_0" index="0" disallow="tram rail_urban rail rail_electric rail_fast ship container cable_car subway aircraft wheelchair scooter drone" speed="8.33" length="2.09" shape="303.98,142.42 305.47,140.94"/>
    </edge>
    <edge id=":cluster_5086359518_5086359520_5482274_8" function="internal">
        <lane id=":cluster_5086359518_5086359520_5482274_8_0" index="0" disallow="tram rail_urban rail rail_electric rail_fast ship container cable_car subway aircraft wheelchair scooter drone" speed="3.65" length="1.44" shape="303.98,142.42 305.20,141.65"/>
    </edge>
    <edge id=":cluster_5086359518_5086359520_5482274_10" function="internal">
        <lane id=":cluster_5086359518_5086359520_5482274_10_0" index="0" disallow="tram rail_urban rail rail_electric rail_fast ship container cable_car subway aircraft wheelchair scooter drone" speed="8.33" length="16.03" shape="305.47,140.94 305.92,140.49 309.36,140.04 314.29,141.06 320.71,143.56"/>
    </edge>
    <edge id=":cluster_5086359518_5086359520_5482274_11" function="internal">
        <lane id=":cluster_5086359518_5086359520_5482274_11_0" index="0" disallow="tram rail_urban rail rail_electric rail_fast ship container cable_car subway aircraft wheelchair scooter drone" speed="3.65" length="3.23" shape="305.20,141.65 306.09,141.61 306.66,142.30 306.91,143.72"/>
    </edge>
    <edge id=":cluster_5482272_7166875324_0" function="internal">
        <lane id=":cluster_5482272_7166875324_0_0" index="0" disallow="tram rail_urban rail rail_electric rail_fast ship container cable_car subway aircraft wheelchair scooter drone" speed="3.65" length="4.67" shape="150.11,287.50 148.90,288.29 148.01,288.34 147.43,287.66 147.17,286.24"/>
    </edge>
    <edge id=":cluster_5482275_957904912_0" function="internal">
        <lane id=":cluster_5482275_957904912_0_0" index="0" disallow="tram rail_urban rail rail_electric rail_fast ship container cable_car subway aircraft wheelchair scooter drone" speed="3.65" length="4.67" shape="229.37,322.94 228.16,323.73 227.27,323.78 226.70,323.09 226.44,321.67"/>
    </edge>

    <edge id="-138313426#1" from="cluster_1170179639_1170179641_1170179661_1170179725_#1more" to="cluster_5482272_7166875324" priority="3" type="highway.residential" shape="225.28,110.53 221.30,119.55 192.69,184.01 150.59,282.31">
        <lane id="-138313426#1_0" index="0" disallow="tram rail_urban rail rail_electric rail_fast ship container cable_car subway aircraft wheelchair scooter drone" speed="8.33" length="189.74" shape="225.72,113.49 222.76,120.20 194.16,184.65 150.11,287.50"/>
    </edge>
    <edge id="-138313426#4" from="7331776312" to="cluster_1170179639_1170179641_1170179661_1170179725_#1more" priority="3" type="highway.residential" shape="257.91,37.23 232.90,95.04">
        <lane id="-138313426#4_0" index="0" disallow="tram rail_urban rail rail_electric rail_fast ship container cable_car subway aircraft wheelchair scooter drone" speed="8.33" length="60.32" shape="259.33,37.99 235.37,93.35"/>
    </edge>
    <edge id="-138313426#5" from="cluster_1518435236_538958140" to="7331776312" priority="3" type="highway.residential" shape="260.91,30.76 257.91,37.23">
        <lane id="-138313426#5_0" index="0" disallow="tram rail_urban rail rail_electric rail_fast ship container cable_car subway aircraft wheelchair scooter drone" speed="8.33" length="9.93" shape="263.60,28.77 259.42,37.78"/>
    </edge>
    <edge id="-213548271#1" from="5086359517" to="cluster_5482275_957904912" priority="3" type="highway.residential" shape="303.99,146.31 229.91,317.67">
        <lane id="-213548271#1_0" index="0" disallow="tram rail_urban rail rail_electric rail_fast ship container cable_car subway aircraft wheelchair scooter drone" speed="8.33" length="189.22" shape="304.46,149.25 229.37,322.94"/>
    </edge>
    <edge id="-213548271#2" from="cluster_5086359518_5086359520_5482274" to="5086359517" priority="3" type="highway.residential" shape="307.76,137.91 303.99,146.31">
        <lane id="-213548271#2_0" index="0" disallow="tram rail_urban rail rail_electric rail_fast ship container cable_car subway aircraft wheelchair scooter drone" speed="8.33" length="1.02" shape="306.91,143.72 306.49,144.65"/>
    </edge>
    <edge id="-213548271#3" from="5086359519" to="cluster_5086359518_5086359520_5482274" priority="3" type="highway.residential" shape="311.28,129.89 307.76,137.91">
        <lane id="-213548271#3_0" index="0" disallow="tram rail_urban rail rail_electric rail_fast ship container cable_car subway aircraft wheelchair scooter drone" speed="8.33" length="0.48" shape="311.72,132.87 311.53,133.31"/>
    </edge>
    <edge id="-213548271#4" from="7331776317" to="5086359519" priority="3" type="highway.residential" shape="336.39,71.68 325.10,97.84 311.28,129.89">
        <lane id="-213548271#4_0" index="0" disallow="tram rail_urban rail rail_electric rail_fast ship container cable_car subway aircraft wheelchair scooter drone" speed="8.33" length="60.71" shape="337.80,72.45 326.57,98.47 313.75,128.20"/>
    </edge>
    <edge id="-213548271#5" from="538958136" to="7331776317" priority="3" type="highway.residential">
        <lane id="-213548271#5_0" index="0" disallow="tram rail_urban rail rail_electric rail_fast ship container cable_car subway aircraft wheelchair scooter drone" speed="8.33" length="7.46" shape="340.91,65.35 337.92,72.18"/>
    </edge>
    <edge id="-213548271#6" from="1518435372" to="538958136" priority="3" type="highway.residential">
        <lane id="-213548271#6_0" index="0" disallow="tram rail_urban rail rail_electric rail_fast ship container cable_car subway aircraft wheelchair scooter drone" speed="8.33" length="6.42" shape="343.59,59.18 341.03,65.07"/>
    </edge>
    <edge id="-532414073#1" from="cluster_1436224101_5086359514" to="cluster_1170179639_1170179641_1170179661_1170179725_#1more" priority="3" type="highway.residential" shape="15.91,7.10 43.51,19.46 70.55,31.56 121.75,54.48 128.28,57.30 137.39,61.49 221.00,98.99">
        <lane id="-532414073#1_0" index="0" disallow="tram rail_urban rail rail_electric rail_fast ship container cable_car subway aircraft wheelchair scooter drone" speed="8.33" length="222.23" shape="16.56,5.64 44.16,18.00 71.20,30.10 122.40,53.02 128.93,55.84 138.05,60.03 219.37,96.50"/>
    </edge>
    <edge id="-532414073#3" from="1436224098" to="cluster_1436224101_5086359514" priority="3" type="highway.residential" shape="0.00,0.00 4.58,1.93 9.56,4.16">
        <lane id="-532414073#3_0" index="0" disallow="tram rail_urban rail rail_electric rail_fast ship container cable_car subway aircraft wheelchair scooter drone" speed="8.33" length="10.46" shape="0.62,-1.47 5.22,0.46 10.21,2.70"/>
    </edge>
    <edge id="138313426#1" from="cluster_5482272_7166875324" to="cluster_1170179639_1170179641_1170179661_1170179725_#1more" priority="3" type="highway.residential" shape="150.59,282.31 192.69,184.01 221.30,119.55 225.28,110.53">
        <lane id="138313426#1_0" index="0" disallow="tram rail_urban rail rail_electric rail_fast ship container cable_car subway aircraft wheelchair scooter drone" speed="8.33" length="189.77" shape="147.17,286.24 191.22,183.37 219.84,118.90 222.80,112.19"/>
    </edge>
    <edge id="138313426#4" from="cluster_1170179639_1170179641_1170179661_1170179725_#1more" to="7331776312" priority="3" type="highway.residential" shape="232.90,95.04 257.91,37.23">
        <lane id="138313426#4_0" index="0" disallow="tram rail_urban rail rail_electric rail_fast ship container cable_car subway aircraft wheelchair scooter drone" speed="8.33" length="60.32" shape="232.44,92.08 256.39,36.72"/>
    </edge>
    <edge id="138313426#5" from="7331776312" to="cluster_1518435236_538958140" priority="3" type="highway.residential" shape="257.91,37.23 260.91,30.76">
        <lane id="138313426#5_0" index="0" disallow="tram rail_urban rail rail_electric rail_fast ship container cable_car subway aircraft wheelchair scooter drone" speed="8.33" length="9.93" shape="256.51,36.44 260.69,27.43"/>
    </edge>
    <edge id="213548271#1" from="cluster_5482275_957904912" to="5086359517" priority="3" type="highway.residential" shape="229.91,317.67 303.99,146.31">
        <lane id="213548271#1_0" index="0" disallow="tram rail_urban rail rail_electric rail_fast ship container cable_car subway aircraft wheelchair scooter drone" speed="8.33" length="189.22" shape="226.44,321.67 301.52,147.98"/>
    </edge>
    <edge id="213548271#2" from="5086359517" to="cluster_5086359518_5086359520_5482274" priority="3" type="highway.residential" shape="303.99,146.31 307.76,137.91">
        <lane id="213548271#2_0" index="0" disallow="tram rail_urban rail rail_electric rail_fast ship container cable_car subway aircraft wheelchair scooter drone" speed="8.33" length="1.01" shape="303.57,143.34 303.98,142.42"/>
    </edge>
    <edge id="213548271#3" from="cluster_5086359518_5086359520_5482274" to="5086359519" priority="3" type="highway.residential" shape="307.76,137.91 311.28,129.89">
        <lane id="213548271#3_0" index="0" disallow="tram rail_urban rail rail_electric rail_fast ship container cable_car subway aircraft wheelchair scooter drone" speed="8.33" length="0.46" shape="308.60,132.00 308.79,131.58"/>
    </edge>
    <edge id="213548271#4" from="5086359519" to="7331776317" priority="3" type="highway.residential" shape="311.28,129.89 325.10,97.84 336.39,71.68">
        <lane id="213548271#4_0" index="0" disallow="tram rail_urban rail rail_electric rail_fast ship container cable_car subway aircraft wheelchair scooter drone" speed="8.33" length="60.71" shape="310.81,126.93 323.63,97.21 334.86,71.18"/>
    </edge>
    <edge id="213548271#5" from="7331776317" to="538958136" priority="3" type="highway.residential">
        <lane id="213548271#5_0" index="0" disallow="tram rail_urban rail rail_electric rail_fast ship container cable_car subway aircraft wheelchair scooter drone" speed="8.33" length="7.46" shape="334.98,70.90 337.97,64.07"/>
    </edge>
    <edge id="213548271#6" from="538958136" to="1518435372" priority="3" type="highway.residential">
        <lane id="213548271#6_0" index="0" disallow="tram rail_urban rail rail_electric rail_fast ship container cable_car subway aircraft wheelchair scooter drone" speed="8.33" length="6.42" shape="338.09,63.79 340.65,57.90"/>
    </edge>
    <edge id="302780356" from="1595430293" to="957917513" priority="1" type="highway.footway" spreadType="center" shape="311.68,176.10 335.36,186.72 340.28,175.39 340.68,170.51 340.05,164.76">
        <lane id="302780356_0" index="0" allow="pedestrian" speed="2.78" length="44.24" width="2.00" shape="314.00,177.14 335.36,186.72 340.28,175.39 340.68,170.51 340.29,166.95"/>
    </edge>
    <edge id="532414073#1" from="cluster_1170179639_1170179641_1170179661_1170179725_#1more" to="cluster_1436224101_5086359514" priority="3" type="highway.residential" shape="221.00,98.99 137.39,61.49 128.28,57.30 121.75,54.48 70.55,31.56 43.51,19.46 15.91,7.10">
        <lane id="532414073#1_0" index="0" disallow="tram rail_urban rail rail_electric rail_fast ship container cable_car subway aircraft wheelchair scooter drone" speed="8.33" length="222.23" shape="218.06,99.42 136.73,62.95 127.63,58.76 121.11,55.94 69.90,33.02 42.86,20.92 15.26,8.56"/>
    </edge>
    <edge id="532414073#3" from="cluster_1436224101_5086359514" to="1436224098" priority="3" type="highway.residential" shape="9.56,4.16 4.58,1.93 0.00,0.00">
        <lane id="532414073#3_0" index="0" disallow="tram rail_urban rail rail_electric rail_fast ship container cable_car subway aircraft wheelchair scooter drone" speed="8.33" length="10.39" shape="8.91,5.62 3.94,3.40 -0.62,1.47"/>
    </edge>
    <edge id="61279881#1" from="cluster_1170179639_1170179641_1170179661_1170179725_#1more" to="cluster_5086359518_5086359520_5482274" priority="3" type="highway.residential" spreadType="center" shape="237.83,106.55 298.75,133.97">
        <lane id="61279881#1_0" index="0" disallow="tram rail_urban rail rail_electric rail_fast ship container cable_car subway aircraft wheelchair scooter drone" speed="8.33" length="59.29" shape="240.12,107.58 294.19,131.92"/>
    </edge>
    <edge id="61279889#1" from="cluster_5086359518_5086359520_5482274" to="cluster_1611096678_5086360621" priority="3" type="highway.residential" spreadType="center" shape="316.10,141.48 383.52,171.84">
        <lane id="61279889#1_0" index="0" disallow="tram rail_urban rail rail_electric rail_fast ship container cable_car subway aircraft wheelchair scooter drone" speed="8.33" length="68.88" shape="320.71,143.56 383.52,171.84"/>
    </edge>
    <edge id="61279889#3" from="cluster_1611096678_5086360621" to="441557" priority="3" type="highway.residential" spreadType="center" shape="388.11,173.69 393.04,175.76 397.32,177.91">
        <lane id="61279889#3_0" index="0" disallow="tram rail_urban rail rail_electric rail_fast ship container cable_car subway aircraft wheelchair scooter drone" speed="8.33" length="10.14" shape="388.11,173.69 393.04,175.76 397.32,177.91"/>
    </edge>
    <edge id="767602024#0" from="7166875314" to="cluster_1170179639_1170179641_1170179661_1170179725_#1more" priority="1" type="highway.footway" spreadType="center" shape="231.71,113.09 225.28,110.53">